XFLR5 v6.09.01 beta

 Calculated polar for: BaseClarkY18.05%

 1 1 Reynolds number fixed          Mach number fixed         

 xtrf =   1.000 (top)        1.000 (bottom)
 Mach =   0.000     Re =     0.154 e 6     Ncrit =   9.000

  alpha     CL        CD       CDp       Cm    Top Xtr Bot Xtr   Cpmin    Chinge    XCp    
 ------- -------- --------- --------- -------- ------- ------- -------- --------- ---------
   0.000   0.5894   0.01798   0.01026  -0.0458  0.3552  0.9496  -1.6161   0.0000   0.3240
   0.500   0.7043   0.01885   0.01095  -0.0574  0.3402  0.9910  -1.7712   0.0000   0.3266
   1.000   0.7719   0.01950   0.01135  -0.0606  0.3295  1.0000  -1.8821   0.0000   0.3224
   1.500   0.8031   0.02000   0.01185  -0.0568  0.3202  1.0000  -1.9595   0.0000   0.3135
   2.000   0.8426   0.02083   0.01240  -0.0544  0.3123  1.0000  -2.0494   0.0000   0.3064
   2.500   0.8730   0.02147   0.01318  -0.0503  0.3034  1.0000  -2.1261   0.0000   0.2985
   3.000   0.9139   0.02217   0.01368  -0.0481  0.2958  1.0000  -2.2236   0.0000   0.2924
   3.500   0.9464   0.02323   0.01484  -0.0446  0.2880  1.0000  -2.3085   0.0000   0.2859
   4.000   0.9841   0.02395   0.01548  -0.0419  0.2801  1.0000  -2.4045   0.0000   0.2803
   4.500   1.0233   0.02513   0.01658  -0.0398  0.2733  1.0000  -2.5031   0.0000   0.2756
   5.000   1.0521   0.02618   0.01780  -0.0359  0.2659  1.0000  -2.5908   0.0000   0.2698
   5.500   1.0964   0.02698   0.01839  -0.0346  0.2593  1.0000  -2.7068   0.0000   0.2661
   6.000   1.1201   0.02850   0.02013  -0.0302  0.2528  1.0000  -2.7858   0.0000   0.2606
   6.500   1.1470   0.02968   0.02140  -0.0264  0.2464  1.0000  -2.8767   0.0000   0.2556
   7.000   1.1963   0.03083   0.02228  -0.0264  0.2405  1.0000  -3.0099   0.0000   0.2535
   7.500   1.1952   0.03258   0.02443  -0.0187  0.2350  1.0000  -3.0559   0.0000   0.2460
   8.000   1.2052   0.03410   0.02607  -0.0128  0.2297  1.0000  -3.1229   0.0000   0.2399
   8.500   1.2541   0.03507   0.02684  -0.0129  0.2247  1.0000  -3.2610   0.0000   0.2384
   9.000   1.2248   0.03772   0.02981  -0.0024  0.2207  1.0000  -3.2626   0.0000   0.2290
   9.500   1.1896   0.04129   0.03373   0.0058  0.2161  1.0000  -3.2465   0.0000   0.2209
  10.000   1.1885   0.04411   0.03666   0.0092  0.2117  1.0000  -3.2923   0.0000   0.2167
  10.500   1.2448   0.04497   0.03731   0.0087  0.2074  1.0000  -3.4490   0.0000   0.2164
  11.500   0.5576   0.15453   0.14865  -0.0269  0.2035  1.0000  -1.2988   0.0000   0.2802
  12.000   0.5777   0.15834   0.15244  -0.0281  0.1961  1.0000  -1.3324   0.0000   0.2792
  12.500   0.6214   0.16218   0.15624  -0.0273  0.1933  1.0000  -1.4438   0.0000   0.2727
  13.000   0.5986   0.16876   0.16285  -0.0326  0.1857  1.0000  -1.3151   0.0000   0.2836
  13.500   0.6224   0.17249   0.16658  -0.0336  0.1808  1.0000  -1.3652   0.0000   0.2817
  14.000   0.6639   0.17682   0.17089  -0.0330  0.1784  1.0000  -1.4783   0.0000   0.2756
  14.500   0.6437   0.18256   0.17666  -0.0388  0.1705  1.0000  -1.3432   0.0000   0.2865
  15.000   0.6674   0.18624   0.18034  -0.0400  0.1664  1.0000  -1.3988   0.0000   0.2847
  15.500   0.7046   0.19087   0.18497  -0.0398  0.1644  1.0000  -1.5058   0.0000   0.2795
  16.000   0.6888   0.19606   0.19020  -0.0458  0.1568  1.0000  -1.3788   0.0000   0.2896
  16.500   0.7115   0.19967   0.19381  -0.0473  0.1529  1.0000  -1.4305   0.0000   0.2880
  17.000   0.7446   0.20430   0.19845  -0.0476  0.1511  1.0000  -1.5314   0.0000   0.2837
  17.500   0.7334   0.20931   0.20348  -0.0536  0.1443  1.0000  -1.4152   0.0000   0.2929
  18.000   0.7542   0.21286   0.20705  -0.0554  0.1403  1.0000  -1.4605   0.0000   0.2918
  18.500   0.7839   0.21721   0.21143  -0.0561  0.1385  1.0000  -1.5581   0.0000   0.2880
  19.000   0.7772   0.22230   0.21654  -0.0621  0.1332  1.0000  -1.4553   0.0000   0.2962
  19.500   0.7957   0.22579   0.22006  -0.0644  0.1286  1.0000  -1.4949   0.0000   0.2957
  20.000   0.8217   0.22972   0.22403  -0.0654  0.1266  1.0000  -1.5844   0.0000   0.2926


